FoamFile
{
    version     2.0;
    format      ascii;
    class       dictionary;
    object      fvSchemes;
}

ddtSchemes
{
    default         backward;   // second-order implicit in time
}

gradSchemes
{
    default         Gauss linear;
    grad(U)         Gauss linear;
}

divSchemes
{
    default         none;
    div(phi,U)      Gauss linearUpwind grad(U);  // stable, ~2nd-order

    // Laminar viscous stress term required by pimpleFoam with the Stokes
    // model in v2406. Harmless in later versions — OpenFOAM ignores unused
    // divScheme entries.
    div((nuEff*dev2(T(grad(U))))) Gauss linear;
}

laplacianSchemes
{
    default         Gauss linear corrected;
}

interpolationSchemes
{
    default         linear;
}

snGradSchemes
{
    default         corrected;
}

fluxRequired
{
    default         no;
    p               ;
}
